

package require customLib_utils
package require ncgi

namespace eval b_write_calc_file {
    variable doc
}

################################################################################
#    main
################################################################################

proc b_write_calc_file::check_times_init {} {
    stime::init
    stime::register ::b_write_calc_file::writeCalcFile "writeCalcFile" \
        ::gid_groups_conds::check_groups_entities "writeCalcFile check_groups_entities" \
        ::write_calc_file::begin "writeCalcFile begin" \
        ::b_write_calc_file::write_loadcases "writeCalcFile write_loadcases" \
        ::b_write_calc_file::write_materials_meshes "writeCalcFile write_materials_meshes" \
        ::b_write_calc_file::write_constraints "writeCalcFile write_constraints" \
        ::b_write_calc_file::write_loads "writeCalcFile write_loads"
}

proc b_write_calc_file::check_times_end {} {

    tk_messageBox -message [stime::print]
}

proc b_write_calc_file::writeCalcFile { _doc file } {
    variable doc
    variable tablesList
    
    set doc $_doc

    #check_times_init

    #gid_groups_conds::check_groups_entities

    #check_values

    set root [$doc documentElement]
#     set fout [open $file w]
#     write_calc_file::begin -local_axes -doc $doc $fout
#     namespace import ::write_calc_file::*

    set tablesList ""

    GiD_WriteCalculationFile init $file
    write_header $root
    write_loadcases $root
    write_materials_meshes $root
    write_detailed_results $root
    write_constraints $root
    write_loads $root
    write_dynamic_conditions $root
    #HIDDEN IN LS-DYNA BECAUSE IT WRITES A BLANK LINE
    #GiD_WriteCalculationFile puts [join $tablesList \n]
    write_output_data $root
    GiD_WriteCalculationFile end
#     write_calc_file::end
#     close $fout

    #check_times_end
}

proc b_write_calc_file::check_values {} {
    variable doc

    sqlite3 db :memory:
    db eval { PRAGMA synchronous=OFF }
    db eval { create table myvalues(name text primary key,node text) }
    _add_values_to_db db [$doc selectNodes /*]
    db close
}

proc b_write_calc_file::_add_values_to_db { db domNode } {
    switch -- [$domNode nodeName] {
        value {
            set n [$domNode @n]
            set err [catch { $db eval { insert
                        into myvalues values($n,$domNode) } } errstring]
            if { $err } {
                error "error when inserting value n=$n ($errstring)"
            }
        }
        condition {
            # nothing
        }
        default {
            if { [$domNode nodeName] eq "blockdata" && 
                [$domNode @sequence 0] == 1 } { return }
            foreach node [$domNode childNodes] {
                _add_values_to_db $db $node
            }
        }
    }
}

proc b_write_calc_file::get_value { name } {
    variable doc

    set node [$doc selectNodes [format_xpath {//value[@n=%s]} $name]]
    return [get_domnode_attribute $node v]
}

################################################################################
#    header
################################################################################

proc b_write_calc_file::write_header { root } {
    global lsdynaPriv
    
    set navalFlag 0
    set problem_type [get_value Problem_type]
    
    set vs [list X Y Z] 

    GiD_WriteCalculationFile puts -nonewline "*KEYWORD"
    #GiD_WriteCalculationFile puts "*TITLE"
    
    GiD_WriteCalculationFile puts -nonewline "\n$\n$ oooooooooooooooooooooooooooooooooooooooooooooooooooooooooooooooooooooooooo\n$"
    GiD_WriteCalculationFile puts -nonewline "\n$ GiD/LS-DYNA INTERFACE, BETA VERSION"
    GiD_WriteCalculationFile puts -nonewline "\n$ Units: N m s rad Kg (SI)"  
    
    set L_mesh [get_value units_mesh]
    set xp [format_xpath {units/unit_magnitude[@n=%s]/unit[@n=%s]} \
            L $L_mesh]
    set L_mesh_fac [$root getAttributeP $xp factor]

    GiD_WriteCalculationFile puts -nonewline "\n$ Mesh factor: $L_mesh_fac" 
    GiD_WriteCalculationFile puts -nonewline "\n$\n$ oooooooooooooooooooooooooooooooooooooooooooooooooooooooooooooooooooooooooo\n$"
    
    #############
    # Another Units point of view (User choose output units), possibly needed in future options
    #############

    
#     foreach i "F L M T Rotation Temp" n [list units_force units_length units_mass units_time units_rotation units_temperature] {
#         set $i [get_value $n]
#         # I HAVE PROBLEMS WRITING FACTORS, CAUSE THE SAME 'n' HAS DIFFERENT FACTORS DEPENDING IF SI OR IMPERIAL SYSTEM IS SELECTED
#         # set xp [format_xpath {units/unit_magnitude[@n=%s]/unit[@n=%s]} \
#             # $i [set $i]]
#         # set ${i}_fac [$root getAttributeP $xp factor]
#     }
#     
#     # set P_fac [expr {$F_fac/double($L_fac*$L_fac)}]
# 
# 
#     #MODULE TO KNOW IF THEY ARE CONSISTENT UNITS
#     
#     if {$F=="N"} {
#         if {$T!="s" || $M=="lb"} {error [= "Force units must be consistent (1 force unit = 1 mass unit x 1 acceleration unit)"]}
#         if {$M=="kg" && $L!="m"} {error [= "Force units must be consistent (1 force unit = 1 mass unit x 1 acceleration unit)"]}
#         if {$M=="ton" && $L!="mm"} {error [= "Force units must be consistent (1 force unit = 1 mass unit x 1 acceleration unit)"]}
#         if {$M=="g" && $L!="km"} {error [= "Force units must be consistent (1 force unit = 1 mass unit x 1 acceleration unit)"]}
#     }
#     
#     if {$F=="kN"} {
#         if {$T!="s" || $M=="lb" || $M=="g"} {error [= "Force units must be consistent (1 force unit = 1 mass unit x 1 acceleration unit)"]}
#         if {$M=="ton" && $L!="m"} {error [= "Force units must be consistent (1 force unit = 1 mass unit x 1 acceleration unit)"]}
#         if {$M=="kg" && $L!="km"} {error [= "Force units must be consistent (1 force unit = 1 mass unit x 1 acceleration unit)"]}
#     } 
#     if {$F=="kp" || $F=="lb-f" || $F=="Tmf"} {error [= "Force units must be consistent (1 force unit = 1 mass unit x 1 acceleration unit)"]}
#     
#     GiD_WriteCalculationFile puts -nonewline "\n$ Units: $F $L $M $T $Rotation $Temp"    
    
    
    #WRITING CONTROL SOLUTION (Not necessary at the moment)
    
#     GiD_WriteCalculationFile puts -nonewline "\n*CONTROL_SOLUTION\n$\n$----SOLN-----------\n$" 
#     GiD_WriteCalculationFile puts "\n[format "%8d" [get_value Solution_procedure]]"

    #WRITING CONTROL HOURGLASS AND BULK VISCOSITY IF NEEDED

    set xp {blockdata[@n="General data"]/container[@n="Bulk_viscosity"]/value[@n="Activation"]}
    set valueNode [$root selectNodes $xp]
    set bulk_activation [gid_groups_conds::convert_value_to_default $valueNode]

    if {$bulk_activation=="1"} {

        GiD_WriteCalculationFile puts -nonewline "\n*CONTROL_BULK_VISCOSITY\n$------Q1-------Q2-----TYPE-----\n"
        
        foreach j [list Default_linear_bulk Default_quadratic_bulk] {

            set xp {blockdata[@n="General data"]/container[@n="Bulk_viscosity"]/value[@n="$j"]}
            set xp [subst -nocommands $xp]
            set valueNode [$root selectNodes $xp]
            GiD_WriteCalculationFile puts -nonewline "[format "%8g" [$valueNode @v]],"
        }

        GiD_WriteCalculationFile puts -nonewline "\n*CONTROL_HOURGLASS\n$-----IHQ-------QH---------"
        
        set xp {blockdata[@n="General data"]/container[@n="Bulk_viscosity"]/value[@n="Default_hourglass_type"]}
        set valueNode [$root selectNodes $xp]
        GiD_WriteCalculationFile puts -nonewline "\n[format "%8d" [$valueNode @v]],"

        set xp {blockdata[@n="General data"]/container[@n="Bulk_viscosity"]/value[@n="Default_hourglass_coefficient"]}
        set valueNode [$root selectNodes $xp]
        GiD_WriteCalculationFile puts -nonewline "[format "%8g" [$valueNode @v]]"
    }
    
    #WRITING CONTROL CPU

    set xp {blockdata[@n="General data"]/container[@n="Solver"]/value[@n="CPU_time"]}
    set valueNode [$root selectNodes $xp]
    set cpu_time [gid_groups_conds::convert_value_to_default $valueNode]

    if {$cpu_time>"0"} {        
        GiD_WriteCalculationFile puts -nonewline "\n*CONTROL_CPU"
        GiD_WriteCalculationFile puts -nonewline "\n$\n$---CPUTIM------------\n$"
        GiD_WriteCalculationFile puts -nonewline "\n[format "%8g" $cpu_time]"        
    }   
    
    
    #WRITING CONTROL TIMESTEP

    set xp {blockdata[@n="General data"]/container[@n="Solver"]/value[@n="Dt_Comp"]}
    set valueNode [$root selectNodes $xp]
    set dcomp [$valueNode @v]

    set xp {blockdata[@n="General data"]/container[@n="Solver"]/value[@n="Time_mass_scaled"]}
    set valueNode [$root selectNodes $xp]
    set time_mass_scaled [gid_groups_conds::convert_value_to_default $valueNode]

    if {$dcomp>"0" || $time_mass_scaled>"0"} {
        
        GiD_WriteCalculationFile puts -nonewline "\n*CONTROL_TIMESTEP"
        GiD_WriteCalculationFile puts -nonewline "\n$\n$--DTINIT---TSSFAC----ISDO---TSLIMT----DT2MS-----LCTM----ERODE----MSIST---------\n$"
        GiD_WriteCalculationFile puts -nonewline "\n        ,[format "%8g" $dcomp],        ,        ,[format "%8g" $time_mass_scaled]"
        
    }

    #WRITING CONTROL TERMINATION

    set xp {blockdata[@n="General data"]/container[@n="Solver"]/value[@n="End_time"]} 
    set valueNode [$root selectNodes $xp]
    set time [gid_groups_conds::convert_value_to_default $valueNode]

    set xp {blockdata[@n="General data"]/container[@n="Solver"]/value[@n="End_cycles"]}
    set valueNode [$root selectNodes $xp]
    set cycles [$valueNode @v]

    set xp {blockdata[@n="General data"]/container[@n="Solver"]/value[@n="Dt_Min"]}
    set valueNode [$root selectNodes $xp]
    set dtmin [$valueNode @v]

    set xp {blockdata[@n="General data"]/container[@n="Solver"]/value[@n="End_Energy_ratio"]}
    set valueNode [$root selectNodes $xp]
    set energy [$valueNode @v]

    set xp {blockdata[@n="General data"]/container[@n="Solver"]/value[@n="End_Total_Mass"]}
    set valueNode [$root selectNodes $xp]
    set mass [$valueNode @v]
            
    GiD_WriteCalculationFile puts "\n*CONTROL_TERMINATION"
    GiD_WriteCalculationFile puts "$\n$--ENDTIM---ENDCYC---DTMIN---ENDENG---ENDMAS---------\n$"
    GiD_WriteCalculationFile puts "[format "%8g" $time],[format "%8d" $cycles],[format "%8g" $dtmin],[format "%8g" $energy],[format "%8g" $mass]"
    
    #WRITING GRAVITY
    
    set xp {blockdata[@n="General data"]/container[@n="Gravity"]/value[@n="Active_gravity"]} 
    set valueNode [$root selectNodes $xp]
    set activation [$valueNode @v]
    
    if  {$activation} {
        set xp {blockdata[@n="General data"]/container[@n="Gravity"]/value[@n="Gravity_Magnitude"]} 
        set valueNode [$root selectNodes $xp]
        set g [gid_groups_conds::convert_value_to_default $valueNode]
        if {$g<0} {
            error [= "Invalid Gravity"]
        } else {
            set direction [get_value Gravity_Direction]
            foreach i $vs {
                if { $direction=="$i-" } { 
                    GiD_WriteCalculationFile puts "*LOAD_BODY_$i"
                    GiD_WriteCalculationFile puts "$\n$-----LCID--------SF-------XC------YC-----ZC-------CID------\n$"
                    GiD_WriteCalculationFile puts "[format "%8d" 1],[format "-%-8g" $g],        ,        ,       ,[format "%8d" 0]" 
                }
                if { $direction=="$i+" } { 
                    GiD_WriteCalculationFile puts "*LOAD_BODY_$i"
                    GiD_WriteCalculationFile puts "$\n$-----LCID--------SF--------LCID------XC------YC-----ZC-------CID------\n$"
                    GiD_WriteCalculationFile puts "[format "%8d" 1],[format "%8g" $g],        ,        ,         ,[format "%8d" 0]" 
                }          
            }
        }        
        
    }
    
    #WRITING DYNAMIC RELAXATION (IF NEEDED)
    
    set xp {blockdata[@n="General data"]/container[@n="Dynamic_relaxation"]/value[@n="Activation"]} 
    set valueNode [$root selectNodes $xp]
    set activation [$valueNode @v]
    
    if  {$activation=="1"} {
        
        GiD_WriteCalculationFile puts "*CONTROL_DYNAMIC_RELAXATION"        
        
        foreach i [list Check_iterations Tolerance Relaxation_factor Timestep_factor] j [list NRCYCK DRTOL DRFCTR TSSFDR] {  
          
            set xp ".//value\[@n='${i}'\]"
            set xp [subst -nocommands $xp]
            set valueNode [$root selectNodes $xp]
            set $j [format %8g [$valueNode @v]]

        }
        
        GiD_WriteCalculationFile puts "$\n$--NRCYCK----DRTOL---DRFCTR---DRTERM---TSSFDR---IRELAL----EDTTL---IDRFLG-----------\n$"
        GiD_WriteCalculationFile puts "$NRCYCK,$DRTOL,$DRFCTR,        ,$TSSFDR" 
    }
    
    #WRITING CONTROL SHELL CARD
    
    GiD_WriteCalculationFile puts "*CONTROL_SHELL" 
    
    set xp {blockdata[@n="General data"]/container[@n="Shell_preferences"]/value[@n="Warpage_angle"]} 
    set valueNode [$root selectNodes $xp]
    set warpage_rad [gid_groups_conds::convert_value_to_default $valueNode]
    
    #Warpage is expressed in degrees
    
    set WRPANG [expr ($warpage_rad/0.017453292519943)]
    
    set xp {blockdata[@n="General data"]/container[@n="Shell_preferences"]/value[@n="Element_sorting"]} 
    set valueNode [$root selectNodes $xp]
    set ESORT [$valueNode @v]
    
    GiD_WriteCalculationFile puts "$\n$--WRPANG----ESORT-----" 
    GiD_WriteCalculationFile puts "[format "%8g" $WRPANG],[format "%8d" $ESORT]" 
    
    #WRITING DEFAULT CURVE (CONSTANT VALUES)
    
    GiD_WriteCalculationFile puts "*DEFINE_CURVE\n$\n$----LCID-----SIDR-----------SFA-------------SFO-----------\n$"
    GiD_WriteCalculationFile puts "[format "%8d" 1],[format "%8d" 0],[format "%8g" 1.0],[format "%8g" 1.0]" 
    GiD_WriteCalculationFile puts "$\n$-----------------AI----------------------OI------------\n$"
    GiD_WriteCalculationFile puts -nonewline "[format "%20E" 0.0],[format "%20E" 1.0]\n[format "%20E" $time],[format "%20E" 1.0]\n[format "%20E" [expr (2*$time)]],[format "%20E" 1.0]"
    
}       


proc b_write_calc_file::files_to_copy_to_remote_server {} {

    set files ""
    set root [gid_groups_conds::give_root_node]

    set xp {/*/blockdata[@n="General data"]/}
    append xp {container[@n='Tdyn_coupling']/value[@n='Tdyn_filename']}
    set valueNode [$root selectNodes $xp]
    set filename [get_domnode_attribute $valueNode v]
    if { $filename ne "" } {
        if { ![file exists $filename] } {
            error [= "File '%s' does not exists for Tdyn coupling" $filename]
        }
        lappend files $filename
        set f [file root $filename].msh
        if { [file exists $f] } { lappend files $f }
    }
    return $files
}

proc b_write_calc_file::write_dynamic_non_linear_header { root } {

    if { [get_value Analysis_Type] eq "Linear_Static" } { return }

################################################################################
#    LINEAR DYNAMIC ANALYSIS
################################################################################
    
    if { [get_value Analysis_Type] eq "Linear_Dynamic" } {
        GiD_WriteCalculationFile puts "dynamic_analysis_type [get_value Dynamic_Analysis_Type]"

        switch [get_value Dynamic_Analysis_Type] {
            Modal_Analysis {
                set p [list Number_of_Modes Eigen_max_iter DeltaT \
                        Number_of_steps Matrix_storage Damping_Type]
            }
            Direct_Integration {
                set p [list DeltaT Number_of_steps Gamma Beta Matrix_storage \
                        Damping_Type]
            }
            Spectrum_Analysis {
                set p [list Number_of_Modes Eigen_max_iter Matrix_storage \
                        Damping_Type Spectrum_Analysis_type]
            }
        }
        foreach i $p {
            GiD_WriteCalculationFile puts "[string tolower $i] [get_value $i]"
        }
        if { [get_value Damping_Type] eq "Rayleigh_Damping" } {
            GiD_WriteCalculationFile puts "alpha_m [get_value Alpha_M]"
            if { [get_value Matrix_storage] eq "Lumped" } {
                GiD_WriteCalculationFile puts "alpha_k 0.0"
            } else {
                GiD_WriteCalculationFile puts "alpha_k [get_value Alpha_K]"
            }
        } else {
            if { [get_value Dynamic_Analysis_Type] eq "Direct_Integration" } {
                error [= "Only Rayleigh Damping is allowed for Direct Integration"]
            }
            GiD_WriteCalculationFile puts "damping_ratio [get_value Damping_ratio]"
        }
        if { [get_value Dynamic_Analysis_Type] eq "Spectrum_Analysis" } {
            if { [get_value Spectrum_Analysis_type] eq "User_defined_spectrum" } {
                set xp {//value[@n="Spectrum_Table"]/function/functionVariable}
                set fvNode [$root selectNodes $xp]
                if { $fvNode eq "" } {
                    error [= "error: There is no spectrum table defined"]
                }
                set values [$fvNode selectNodes value]
                if { [llength $values] < 1} {
                    error [= "error: Spectrum table does not contain enough data"]
                }
                GiD_WriteCalculationFile puts "begin_spectral_table"
                set last_t ""
                foreach v $values {
                    foreach "t f" [split [$v @v] ,] break
                    if { $last_t ne "" && $t <= $last_t } {
                        error [= "error: Spectrum table must have increasing times"]
                    }
                    GiD_WriteCalculationFile puts "$t $f"
                }
                GiD_WriteCalculationFile puts "end_table"
                foreach i [list x y z] {
                    set xp [format_xpath {//value[@n=%s]} Spectrum_direction_n$i]
                    set valueNode [$root selectNodes $xp]
                    set v [gid_groups_conds::convert_value_to_default $valueNode]
                    GiD_WriteCalculationFile puts "j$i $v"
                }
            } elseif { [get_value Spectrum_Analysis_type] eq "Seismic_codes" } {
                if { [get_value Code_type] eq "NCSE-94_Spain_Code" } {
                    GiD_WriteCalculationFile puts "code_type NCSE-94"
                    set xp {//value[@n="Design_Seismic_Acceleration"]}
                    set valueNode [$root selectNodes $xp]
                    set v [gid_groups_conds::convert_value_to_default $valueNode]
                    GiD_WriteCalculationFile puts "design_acceleration $v"
                    foreach i [list x y z] {
                        GiD_WriteCalculationFile puts "j$i [get_value Seismic_direction_n$i]"
                    }
                    foreach i "c k ductility" j [list Soil_coefficient \
                            Contribution_coefficient Ductility] {
                        GiD_WriteCalculationFile puts "$i [get_value $j]"
                    }
                } else {
                    error [= "Other Seismic codes are not still available"]
                }
            } else {
                error "unknown Spectrum_Analysis_type=[get_value Spectrum_Analysis_type]"
            }
        } else {
            GiD_WriteCalculationFile puts "initial_conditions [get_value Initial_Conditions]"
        }
    } elseif { [get_value Analysis_Type] eq "Non-Linear_Static" } {
        foreach i [list factor_incremental number_increments \
                automatic_increment control_type convergence_tolerance_fact \
                iteration_type maximun_iter_number line_search auto_arc_switch] \
            j [list Delta_Fac Num_inc Automatic_inc Control \
                Conv._tolerance_static Iteration_type Max_iter Line-Search Auto-ARC-switch] {
            GiD_WriteCalculationFile puts "$i [get_value $j]"
        }
        if { [get_value Automatic_inc] } {
            foreach i [list number_iteration_desider maxim_load_increment \
                    minim_load_increment] j [list Num_Iter_d DeltaP_max DeltaP_min] {
                GiD_WriteCalculationFile puts "$i [get_value $j]"
            }
        }
        if { [get_value Control] eq "Arc-length_Control" } {
            foreach i [list desired_length_inc max_lenght_inc \
                    min_length_inc] j [list DeltaL_d DeltaL_max DeltaL_min] {
                GiD_WriteCalculationFile puts "$i [get_value $j]"
            }
        }
        if { [get_value Line-Search] } {
            foreach i [list max_num_ls_loops tolerance_ls \
                    min_step_length max_step_length max_amplitude] \
                j [list LS-loops LS-toler LS-min LS-max Amp-max] {
                GiD_WriteCalculationFile puts "$i [get_value $j]"
            }
        }
        if { [get_value Auto-ARC-switch] } {
           foreach i [listdesired_current_stiffness] \
                j [list C_Stif] {
                GiD_WriteCalculationFile puts "$i [get_value $j]"
            }
        }
    } elseif { [get_value Analysis_Type] eq "Non-Linear_Dynamic" } {
        if { [get_value Integration_method] eq "Implicit" } {
            GiD_WriteCalculationFile puts "integration_method implicit"
            GiD_WriteCalculationFile puts "t_0 [get_value T_0]"

            set xp {//value[@n="DeltaT_variation"]}
            set valueNode [$root selectNodes $xp]
            set fvNode [$valueNode selectNodes {function/functionVariable}]
            if { $fvNode eq "" } {
                error [= "error: There is no Delta t variation table defined"]
            }
            set values [$fvNode selectNodes value]
            if { [llength $values] < 1} {
                error [= "error: Delta t variation table does not contain enough data"]
            }
            GiD_WriteCalculationFile puts "deltat_groups [llength $values]"
            set nsteps 0
            foreach v $values {
                foreach "nstep deltat" [split [$v @v] ,] break
                set deltat [gid_groups_conds::convert_v_to_default $deltat \
                        T [$valueNode @units]]
                GiD_WriteCalculationFile puts "$nstep $deltat"
                incr nsteps $nstep
            }
            GiD_WriteCalculationFile puts "number_of_steps $nsteps"
            foreach i [list gamma beta matrix_storage initial_conditions alpha_m \
                    alpha_k convergence_tolerance_fact iteration_type \
                    maximun_iter_number] \
                j [list Gamma_NL Beta_NL Matrix_storage_NL Initial_Conditions_NL \
                    Alpha_M_NL Alpha_K_NL Conv._tolerance_dynamic \
                    Iteration_type_NL Max_iter_NL] {
                GiD_WriteCalculationFile puts "$i [get_value $j]"
            }
            if { [get_value Initial_Conditions] eq "Comb._Load_1" } {
                GiD_WriteCalculationFile puts "Comb_Load_1_data [get_value Comb_Load_1_data]"
            }
        } elseif { [get_value Integration_method] eq "Explicit" } {
            GiD_WriteCalculationFile puts "integration_method explicit"
            foreach i [list t_0 deltat number_of_steps initial_conditions \
                    alpha_m] \
                j [list T_0 Delta_T Number-of-steps Initial_Conditions_NL \
                    Alpha_M_NL] {
                GiD_WriteCalculationFile puts "$i [get_value $j]"
            }
            GiD_WriteCalculationFile puts "matrix_storage lumped"
            if { [get_value Initial_Conditions] eq "Comb._Load_1" } {
                GiD_WriteCalculationFile puts "Comb_Load_1_data [get_value Comb_Load_1_data]"
            }
            GiD_WriteCalculationFile puts "alpha_k 0.0"
        } else {
            error "error: Integration_method=[get_value Integration_method]"
        }
    } elseif { [get_value Analysis_Type] ne "Linear_Static" } {
        error "error: Analysis_Type=[get_value Analysis_Type]"
    }
    set nres 0
    foreach res [list Displacements Rotations Velocities Accelerations \
            Strengths Reactions ElemDamage] {
        GiD_WriteCalculationFile puts "write_[string tolower $res] [get_value Write_$res]"
        if { [get_value Write_$res] } { incr nres }
    }
    GiD_WriteCalculationFile puts "output_step [get_value Output_Step]"
    if { $nres == 0 } {
        error [= "error: It is necesary to write at least one result. Check General data->Dynamic output"]
    }
}

################################################################################
#    Load cases
################################################################################

proc b_write_calc_file::write_loadcases { root } {
    set problem_type [get_value Problem_type]

    set xp {container[@n='loadcases']/container[@n='combined_loadcases']/blockdata}
    set loadcasesNodes [$root selectNodes $xp]
    #GiD_WriteCalculationFile puts "combined_load_cases"
    if { ![llength $loadcasesNodes] } {
        #GiD_WriteCalculationFile puts "inactive"
    } else {
        GiD_WriteCalculationFile puts "active"
        foreach lcNode $loadcasesNodes {
            regsub -all {\s+} [$lcNode @name] {_} name
            GiD_WriteCalculationFile puts -nonewline "combined_load name=$name type="
            switch [$lcNode @comb_type] {
                ELU { GiD_WriteCalculationFile puts -nonewline "strengths" }
                ELS { GiD_WriteCalculationFile puts -nonewline "deformation" }
            }
            GiD_WriteCalculationFile puts ""
            set list ""
            foreach v [$lcNode selectNodes value] {
                regsub -all {\s+} [$v @name] {_} name
                lappend list [$v @v] $name
            }
            GiD_WriteCalculationFile puts [join $list ,]
            GiD_WriteCalculationFile puts "end combined_load"
        }
    }
    #GiD_WriteCalculationFile puts "end combined_load_cases"
}

################################################################################
#    Materials
################################################################################

proc b_write_calc_file::write_materials_meshes { root } {

    set laminNames ""
    set xp {container[@n="Properties"]/container[@n="Shells"]/condition[@n="Laminate_shell"]/group}
    foreach gNode [$root selectNodes $xp] {
        if { [dict exists $groupsS [$gNode @n]] } {
            error [= "There are repeated groups in the shell properties"]
        }
        dict set groupsS [$gNode @n] $nmat
        set laminFlag [lindex $groupsS 0]
        lappend laminNames $laminFlag
    }
    if {$laminNames != ""} {
        GiD_WriteCalculationFile puts "Laminate"
    }
    
    set nmat 1
    
    set change_keyword [dict create Specific_weight Weight W_y Wy W_z Wz \
            Inertia_y Iy Inertia_z Iz Thickness t \
            steel_section_name Section steel_material Steel Z_axe_position z_axe \
            Elastic_limit plasticity_shell Saturation_flow_stress "" \
            Saturation_hardening_law_exponent "" Linear_hardening "" \
            Linear_kinematic_hardening "" StiffDm Dm StiffDf Df StiffDmf Dmf StiffDc Dc \
            StiffWeight Weight StiffMaxstress Maximum_Stress StiffWx Wx StiffWy Wy \
            StiffWt Wt StiffAx Ax StiffAy Ay StiffAt At StiffAtx Atx StiffAty Aty \
            area Area weight Weight iyy Iy izz Iz j J g G units Units \
            e E laminate_properties laminate]

    set no_print [list Material Isotropic_hardening Kinematic_hardening \
            win_info Layer_number Units matlist lamlist mathick \
            section_prop section_info mat_prop lamprop comprop layersList laminatesList \
            StiffThickness StiffClearance StiffDirection StiffMat \
            laminates StiffName numero_de_capas thickness]


    #IN THIS LSDYNA VERSION, GROUPS CONTACTS ARE NOT MATERIALS SECTION
    set groupsContact ""

##################################PART DATA INITIALITATION####################################################

    global part_info    
    #MAT INFO IS GLOBAL A CAUSE OF CARDS LIKE *BOUNDARY_PRESCRIBED_MOTION_RIGID
    global mat_info
    
    global curve_num
    set curve_num 1

    set part_info ""
    set mat_info ""
    
    set part_num 0
    set mat_num 0

    set hourglass_num 0

#####################################WRITING SOLID PARTS#####################################################

    set groupsV ""

    #Set_num is a global variable because it is used in loads and constraints
    global set_num
    set set_num 0

    set section_info_solids ""
    set xp {container[@n="Properties"]/container[@n="Solids"]/condition/group}
    
    ###### Start writing *PART, Preparing *SECTION_SOLID and Start Preparing *MAT_ELASTIC ########
 
    set section_solids_num 0
    set set_solid_definition 0
    
    foreach gNode [$root selectNodes $xp] {
        if { [dict exists $groupsV [$gNode @n]] } {
            error [= "There are repeated groups in the solid properties"]
        }
        
        incr part_num
        dict set groupsV [$gNode @n] $part_num

        #PARTS MATCH GiD GROUPS, THAT'S WHY THEY ARE NOT SIMPLIFIED
        
        dict set part_info [$gNode @n] PID "[format %8d $part_num]"
        
        set xp ".//value\[@n='m']"
        set valueNode [$gNode selectNodes $xp]
        set mass [get_domnode_attribute $valueNode v]
        
        #We write only not inertia parts
        if {$mass=="0"} {
            GiD_WriteCalculationFile puts -nonewline "\n*PART\n$-----PID---SECID-----MID--------\nPart $part_num Header\n[format %8d $part_num],"  
            dict set part_info [$gNode @n] TM 0
        } else {
            #We read inertia properties
            
            set mass [format %8g [gid_groups_conds::convert_value_to_default $valueNode]]
            dict set part_info [$gNode @n] TM $mass
            
            set xp ".//value\[@n='Define_center']"
            set valueNode [$gNode selectNodes $xp]
            set center [get_domnode_attribute $valueNode v]
            dict set part_info [$gNode @n] CENTER $center
            
            switch $center {
                1 {
                    set list_names [list Ixx Iyy Izz Ixy Ixz Iyz xc yc zc]
                    set list_variables [list IXX IYY IZZ IXY IXZ IYZ XC YC ZC]
                }
                0 {
                    set list_names [list Ixx Iyy Izz Ixy Ixz Iyz]
                    set list_variables [list IXX IYY IZZ IXY IXZ IYZ]
                }
            }
            
            foreach i $list_names j $list_variables {
                
                set xp ".//value\[@n='$i']"
                set valueNode [$gNode selectNodes $xp]   
                dict set part_info [$gNode @n] $j "[format %8g [gid_groups_conds::convert_value_to_default $valueNode]]"   
            }
        }
        
        set xp ".//value\[@n='Ambient_element']"
        set valueNode [$gNode selectNodes $xp]
        
        set ambient_v [format %8d [get_domnode_attribute $valueNode v]]
        set ambient_state [$valueNode @state]
        
        set xp ".//value\[@n='Element_formulation']"
        set valueNode [$gNode selectNodes $xp]
        set formulation [format %8d [get_domnode_attribute $valueNode v]]
        
        #TO AVOID SECTION_SOLID REPETITION     

        set section_found 0

        dict for {sid info} $section_info_solids {
            if {!$section_found} {
                set section_exists 1
                dict with info {
                    if { $ELFORM!=$formulation } { set section_exists 0 }
                    if { $ambient_state=="normal" && $AET!=$ambient_v } { set section_exists 0 }
                    if { $section_exists } {
                        dict set part_info [$gNode @n] SID "[format %8d $sid]"
                        if {$mass=="0"} {
                            GiD_WriteCalculationFile puts -nonewline "[format %8d $sid],"
                        }
                        set section_found 1
                    }
                }
            }
        }
        
        if {!$section_found || $section_solids_num=="0"} {
            
            incr section_solids_num
            dict set section_info_solids "$section_solids_num" ELFORM "$formulation"
            dict set section_info_solids "$section_solids_num" ACTIVATION "$ambient_state"
            dict set section_info_solids "$section_solids_num" AET "$ambient_v"
            
            dict set part_info [$gNode @n] SID "[format %8d $section_solids_num]"
            if {$mass=="0"} {
                GiD_WriteCalculationFile puts -nonewline "[format %8d $section_solids_num],"
            }
        } 
        
        #SAVING MATERIAL DATA
        
        set aux [save_materials $root $gNode $mat_info $mat_num 0 $mass 0]

        #WRITING *HOURGLASS CARD IF NEEDED

        set hourglass_id [write_hourglass $gNode $hourglass_num $mass]  

        #WRITING *SET_SOLID IF NEEDED

        set xp ".//value\[@n='Create_set']"
        set valueNode [$gNode selectNodes $xp]
        set activate_set [get_domnode_attribute $valueNode v]

        if {$activate_set=="1"} {

            incr set_solid_definition 
            
            GiD_WriteCalculationFile puts -nonewline "\n*SET_SOLID\n$-----SID-----\n[format "%8d" $set_solid_definition]"
            GiD_WriteCalculationFile puts -nonewline "\n$------K1-------K2-------K3-------K4-------K5-------K6-------K7-------K8----" 
            set groupsSetSolid ""

            dict set groupsSetSolid [$gNode @n] $set_solid_definition     
                    
            set isquadratic [lindex [GiD_Info Project] 5]                   
                                   
            foreach elemtype [list Tetrahedra Hexahedra] {
                
                switch $elemtype {                
                    Tetrahedra {
                        switch $isquadratic {
                            0 { set nnode 4 }
                            1 { set nnode 10 }
                            2 { set nnode 10 }
                        }
                    }
                    Hexahedra {
                        switch $isquadratic {
                            0 { set nnode 8 }
                            1 { set nnode 20}
                            2 { set nnode 27}
                        }
                    }
                }
                
                set formats ""

                #WE PRINT ONLY THE ELEMENT NUMBER IN EACH LINE
                set f "\n%8d"

                set nodenum 1
                
                while { $nodenum<=$nnode } {
                    append f "%0.s"
                    set nodenum [expr ($nodenum+1)]
                }

                set nodenum 1
 
                while { $nodenum<="7" } {
                    append f ",       0"
                    set nodenum [expr ($nodenum+1)]
                }
                
                set f [subst -novariables $f] 
                            
                dict for "n v" $groupsSetSolid {
                    dict set formats $n "$f"
                }
                
                if { [GiD_WriteCalculationFile has_elements -elemtype $elemtype $formats] } {
                    set SetSolid_elements [GiD_WriteCalculationFile connectivities -elemtype $elemtype $formats]
                }
            }  
        } 
    }
    
    #####################################WRITING SHELL PARTS#####################################################
    
    
    set groupsS ""
    
    set section_info_shells ""
    set xp {container[@n="Properties"]/container[@n="Shells"]/condition/group}
    set xp2 {container[@n="Properties"]/container[@n="Airbags"]/condition/groupList/group[1]}
    set xp3 {container[@n="Properties"]/container[@n="Airbags"]/condition/groupList/group[2]}
    
    ##### Continue writing *PART, Preparing *SECTION_SHELL and Continue Preparing *MAT_ELASTIC ########
    
    set section_shells_num 0
    
    foreach gNode [$root selectNodes "$xp|$xp2|$xp3"] {
        
        if { [dict exists $groupsS [$gNode @n]] } {
            error [= "There are repeated groups in the shell properties"]
        }
        
        incr part_num
        dict set groupsS [$gNode @n] $part_num
        
        dict set part_info [$gNode @n] PID "[format %8d $part_num]"
            
        set mass 0

        set property_container [$gNode selectNodes {string(../../@n)}]

        #THERE IS NO MASS DATA IN AIRBAGS AT THE MOMENT
    
        if {$property_container!="Airbag"} {
            set xp ".//value\[@n='m']"
            set valueNode [$gNode selectNodes $xp]
            set mass [get_domnode_attribute $valueNode v]
        }       
 
        #We write only not inertia parts
        if {$mass=="0"} {
            GiD_WriteCalculationFile puts -nonewline "\n*PART\n$-----PID---SECID-----MID--------\nPart $part_num Header\n[format %8d $part_num],"  
            dict set part_info [$gNode @n] TM 0
        } else {
            #We read inertia properties
            
            set mass [format %8g [gid_groups_conds::convert_value_to_default $valueNode]]
            dict set part_info [$gNode @n] TM $mass
            
            set xp ".//value\[@n='Define_center']"
            set valueNode [$gNode selectNodes $xp]
            set center [get_domnode_attribute $valueNode v]
            dict set part_info [$gNode @n] CENTER $center
            
            switch $center {
                1 {
                    set list_names [list Ixx Iyy Izz Ixy Ixz Iyz xc yc zc]
                    set list_variables [list IXX IYY IZZ IXY IXZ IYZ XC YC ZC]
                }
                0 {
                    set list_names [list Ixx Iyy Izz Ixy Ixz Iyz]
                    set list_variables [list IXX IYY IZZ IXY IXZ IYZ]
                }
            }
            
            foreach i $list_names j $list_variables {
                
                set xp ".//value\[@n='$i']"
                set valueNode [$gNode selectNodes $xp]  
                set tensor [get_domnode_attribute $valueNode v]
                #To avoid units problems
                if {$tensor=="0.0"} {
                    dict set part_info [$gNode @n] $j 0 
                } else {
                    dict set part_info [$gNode @n] $j "[format %8g [gid_groups_conds::convert_value_to_default $valueNode]]"   
                }     
            }
        }
        
        #IN AIRBAGS WE HAVE DIFFERENT PATHS
        if {$property_container=="Airbag"} {
           set xp "..//value\[@n='Thickness']"
        } else {
            set xp ".//value\[@n='Thickness']"
        }
        
        set valueNode [$gNode selectNodes $xp]
        set thickness [format %8g [gid_groups_conds::convert_value_to_default $valueNode]]  

        if {$property_container=="Airbag"} {
            set xp "..//value\[@n='Element_formulation']"
        } else {
            set xp ".//value\[@n='Element_formulation']"
        }

        set valueNode [$gNode selectNodes $xp]
        set formulation [format %8d [get_domnode_attribute $valueNode v]]   


        foreach i [list Shear_factor Integration_points Reference_surface_factor] j [list shear_factor integration_points surface_factor] {
            if {$property_container=="Airbag"} {
                set xp "..//value\[@n='$i']"
            } else {
                set xp ".//value\[@n='$i']"
            }
            
            set valueNode [$gNode selectNodes $xp]
            set $j [format %8g [get_domnode_attribute $valueNode v]]
        }

        foreach i [list Thickness_field 2D_solid_element] j [list thickness_field_v 2D_v] k [list thickness_field_state 2D_state] {
            if {$property_container=="Airbag"} {
                set xp "..//value\[@n='$i']"
            } else {
                set xp ".//value\[@n='$i']"
            }
            set valueNode [$gNode selectNodes $xp]
            set $j [format %8d [get_domnode_attribute $valueNode v]]
            set $k [$valueNode @state]
        }
          
        #TO AVOID SECTION_SHELL REPETITION
        
        set section_found 0
              
        dict for {sid info} $section_info_shells {
            if {!$section_found} {
                set section_exists 1
                dict with info {
                    if { $ELFORM!=$formulation || $SHRF!=$shear_factor || $NIP!=$integration_points || $T1234!=$thickness || $NLOC!=$surface_factor } { set section_exists 0 }
                    if { $thickness_field_state=="normal" && $IDOF!=$thickness_field_v } { set section_exists 0 }  
                    if { $2D_state=="normal" && $SETYP!=$2D_v } { set section_exists 0 }
                    if { $section_exists } {
                        dict set part_info [$gNode @n] SID "[format %8d $sid]"
                        if {$mass=="0"} {
                            GiD_WriteCalculationFile puts -nonewline "[format %8d $sid],"
                        }
                        set section_found 1
                    }
                }
            }
        }
        
        if {!$section_found || $section_shells_num=="0"} {    
            incr section_shells_num
            dict set section_info_shells "[ expr { $section_solids_num + $section_shells_num }]" ELFORM "$formulation"
            dict set section_info_shells "[ expr { $section_solids_num + $section_shells_num }]" SHRF "$shear_factor"
            dict set section_info_shells "[ expr { $section_solids_num + $section_shells_num }]" NIP "$integration_points"
            dict set section_info_shells "[ expr { $section_solids_num + $section_shells_num }]" T1234 "$thickness"
            dict set section_info_shells "[ expr { $section_solids_num + $section_shells_num }]" NLOC "$surface_factor"
            dict set section_info_shells "[ expr { $section_solids_num + $section_shells_num }]" IDOF "$thickness_field_v"
            dict set section_info_shells "[ expr { $section_solids_num + $section_shells_num }]" ACTIVATION_IDOF "$thickness_field_state" 
            dict set section_info_shells "[ expr { $section_solids_num + $section_shells_num }]" SETYP "$2D_v" 
            dict set section_info_shells "[ expr { $section_solids_num + $section_shells_num }]" ACTIVATION_SETYP "$2D_state"
            
            dict set part_info [$gNode @n] SID "[format %8d [ expr { $section_solids_num + $section_shells_num }]]"
            if {$mass=="0"} {
                GiD_WriteCalculationFile puts -nonewline "[format %8d [ expr { $section_solids_num + $section_shells_num }]],"
            }
        }
        
        #SAVING MATERIAL DATA
        
        set aux [save_materials $root $gNode $mat_info $mat_num 0 $mass 0]

        #WRITING *HOURGLASS CARD IF NEEDED (DISABLED FOR AIRBAGS)

        if {$property_container!="Airbag"} {
            set hourglass_id [write_hourglass $gNode $hourglass_num $mass]  
        }
    }
    
    #########################WRITING BEAM PARTS##################################################

    set xp {container[@n="Properties"]/container[@n="Beams"]/condition/group}

    set groupsL ""
    set section_info_beams ""
    
    ##### Continue writing *PART, Preparing *SECTION_BEAM and Continue Preparing *MAT_ELASTIC ########
    
    set section_beams_num 0
    
    foreach gNode [$root selectNodes "$xp"] {
        
        if { [dict exists $groupsL [$gNode @n]] } {
            error [= "There are repeated groups in the beam properties"]
        }        
        
        incr part_num
        dict set groupsL [$gNode @n] $part_num
 
        dict set part_info [$gNode @n] PID "[format %8d $part_num]"
        set xp ".//value\[@n='m']"
        set valueNode [$gNode selectNodes $xp]
        set mass [get_domnode_attribute $valueNode v]
        
        #We write only not inertia parts
        if {$mass=="0"} {
            GiD_WriteCalculationFile puts -nonewline "\n*PART\n$-----PID---SECID-----MID--------\nPart $part_num Header\n[format %8d $part_num],"  
            dict set part_info [$gNode @n] TM 0
        } else {
            #We read inertia properties
            
            set mass [format %8g [gid_groups_conds::convert_value_to_default $valueNode]]
            dict set part_info [$gNode @n] TM $mass
            
            set xp ".//value\[@n='Define_center']"
            set valueNode [$gNode selectNodes $xp]
            set center [get_domnode_attribute $valueNode v]
            dict set part_info [$gNode @n] CENTER $center
            
            switch $center {
                1 {
                    set list_names [list Ixx Iyy Izz Ixy Ixz Iyz xc yc zc]
                    set list_variables [list IXX IYY IZZ IXY IXZ IYZ XC YC ZC]
                }
                0 {
                    set list_names [list Ixx Iyy Izz Ixy Ixz Iyz]
                    set list_variables [list IXX IYY IZZ IXY IXZ IYZ]
                }
            }
            
            foreach i $list_names j $list_variables {
                
                set xp ".//value\[@n='$i']"
                set valueNode [$gNode selectNodes $xp]   
                dict set part_info [$gNode @n] $j "[format %8g [gid_groups_conds::convert_value_to_default $valueNode]]"   
            }
        }  

        set type [$gNode selectNodes {string(../@n)}]
        
            
            set xp ".//value\[@n='WidthY']"
            set valueNode [$gNode selectNodes $xp]
            set widthy [format %8g [gid_groups_conds::convert_value_to_default $valueNode]]
            
            set xp ".//value\[@n='WidthZ']"
            set valueNode [$gNode selectNodes $xp]
            set widthz [format %8g [gid_groups_conds::convert_value_to_default $valueNode]]
            
            set xp ".//value\[@n='Element_formulation']"
            set valueNode [$gNode selectNodes $xp]
            set formulation [format %8d [get_domnode_attribute $valueNode v]]
            
            set xp ".//value\[@n='Quadrature_rule']"
            set valueNode [$gNode selectNodes $xp]
            set quadrature_v [format %8g [get_domnode_attribute $valueNode v]]
            set quadrature_state [$valueNode @state]
            
            set xp ".//value\[@n='Non_structural_mass']"
            set valueNode [$gNode selectNodes $xp]
            set mass_v [format %8g [gid_groups_conds::convert_value_to_default $valueNode]]
            set mass_state [$valueNode @state]
            if {$mass_v=="0"} {
                error [= "Structural masses of beams elements must be >0"]
            }
            
            set xp ".//value\[@n='Location_y_axis']"
            set valueNode [$gNode selectNodes $xp]
            set yaxis_v [format %8g [get_domnode_attribute $valueNode v]]
            set yaxis_state [$valueNode @state]
            
            set xp ".//value\[@n='Location_z_axis']"
            set valueNode [$gNode selectNodes $xp]
            set zaxis_v [format %8g [get_domnode_attribute $valueNode v]]
            set zaxis_state [$valueNode @state]
            
            set xp ".//value\[@n='Output_force']"
            set valueNode [$gNode selectNodes $xp]
            set output_v [format %8d [get_domnode_attribute $valueNode v]]
            set output_state [$valueNode @state]
            
            #TO AVOID SECTION_BEAM REPETITION
            
            set section_found 0
            
            dict for {sid info} $section_info_beams {
                if {!$section_found} {
                    set section_exists 1
                    dict with info {
                        if { $ELFORM!=$formulation || $TS!=$widthy || $TT!=$widthz } { set section_exists 0 }
                        if { $quadrature_state=="normal" && $QR!=$quadrature_v } { set section_exists 0 }  
                        if { $mass_state=="normal" && $NSM!=$mass_v } { set section_exists 0 }
                        if { $yaxis_state=="normal" && $NSLOC!=$yaxis_v } { set section_exists 0 }
                        if { $zaxis_state=="normal" && $NTLOC!=$zaxis_v } { set section_exists 0 }
                        if { $output_state=="normal" && $PRINT!=$output_v } { set section_exists 0 }
                        if { $section_exists } {
                            dict set part_info [$gNode @n] SID "[format %8d $sid]"
                            if {$mass=="0"} {
                                GiD_WriteCalculationFile puts -nonewline "[format %8d $sid],"
                            }
                            set section_found 1
                        }
                    }
                }
            }
            
            if {!$section_found || $section_beams_num=="0"} {    
                incr section_beams_num
                dict set section_info_beams "[ expr { $section_solids_num + $section_shells_num + $section_beams_num }]" TYPE "$type"
                dict set section_info_beams "[ expr { $section_solids_num + $section_shells_num + $section_beams_num }]" ELFORM "$formulation"
                dict set section_info_beams "[ expr { $section_solids_num + $section_shells_num + $section_beams_num }]" TS "$widthy"
                dict set section_info_beams "[ expr { $section_solids_num + $section_shells_num + $section_beams_num }]" TT "$widthz"
                dict set section_info_beams "[ expr { $section_solids_num + $section_shells_num + $section_beams_num }]" QR "$quadrature_v"
                dict set section_info_beams "[ expr { $section_solids_num + $section_shells_num + $section_beams_num }]" NSM "$mass_v"
                dict set section_info_beams "[ expr { $section_solids_num + $section_shells_num + $section_beams_num }]" NSLOC "$yaxis_v"
                dict set section_info_beams "[ expr { $section_solids_num + $section_shells_num + $section_beams_num }]" NTLOC "$zaxis_v"
                dict set section_info_beams "[ expr { $section_solids_num + $section_shells_num + $section_beams_num }]" PRINT "$output_v"
                
                dict set part_info [$gNode @n] SID "[format %8d [ expr { $section_solids_num + $section_shells_num + $section_beams_num }]]"
                if {$mass=="0"} {
                    GiD_WriteCalculationFile puts -nonewline "[format %8d [ expr { $section_solids_num + $section_shells_num + $section_beams_num }]],"
                }
            }
        


        #SAVING MATERIAL DATA
        
        set aux [save_materials $root $gNode $mat_info $mat_num 0 $mass 0]
                   
    }


    ##################################### WRITING INERTIA PARTS###################################

  
    set print_title 0
    
    dict for {id info} $part_info {
        #WE PRINT ONLY INERTIA PARTS
        dict with info { 
            if {$TM=="0"} continue
            GiD_WriteCalculationFile puts -nonewline "\n*PART_INERTIA\nPart Inertia $PID Header"
            if {$print_title=="0"} {
                GiD_WriteCalculationFile puts -nonewline "\n$\n$-----PID----SECID------MID----EOSID-----HGID------\n$"
            }
            GiD_WriteCalculationFile puts -nonewline "\n[format %8d $PID],[format %8d $SID],[format %8d $MID]" 

            if {$HGID!=-1} {
                 GiD_WriteCalculationFile puts -nonewline ",        ,[format %8d $HGID]"
            }

            if {$print_title=="0"} {
                GiD_WriteCalculationFile puts -nonewline "\n$\n$------XC-------YC-------ZC-------TM------\n$"
            }
            switch $CENTER {
                1 {
                    GiD_WriteCalculationFile puts -nonewline "\n[format %8g $XC],[format %8g $XC],[format %8g $XC]," 
                }
                0 {
                    GiD_WriteCalculationFile puts -nonewline "\n        ,        ,        ,"   
                }
            }
            GiD_WriteCalculationFile puts -nonewline "[format %8g $TM]"

            if {$print_title=="0"} {
                GiD_WriteCalculationFile puts -nonewline "\n$\n$-----IXX------IXY------IXZ------IYY------IYZ------IZZ------\n$"
            }
            GiD_WriteCalculationFile puts -nonewline "\n[format %8g $IXX],[format %8g $IXY],[format %8g $IXZ],[format %8g $IYY],[format %8g $IYZ],[format %8g $IZZ]" 
            
            if {$print_title=="0"} {
                GiD_WriteCalculationFile puts -nonewline "\n$\n$-----VTX------VTY------VTZ------VRX------VRY------VRZ------\n$"
            }
            GiD_WriteCalculationFile puts -nonewline "\n" 
            
            set print_title 1
            
        }    
    }


##############################WRITING EACH SECTION AND MATERIALS#########################################


    ########## Writing *SECTION_SOLID ##############


    if {$section_solids_num!="0"} {
        
        GiD_WriteCalculationFile puts -nonewline "\n*SECTION_SOLID\n$\n$---SECID--ELFORM---AET--------\n$"
        
        foreach id [dict keys $section_info_solids] {
            GiD_WriteCalculationFile puts -nonewline "\n[format %8d $id],[dict get $section_info_solids $id ELFORM]"
            
            if {[dict get $section_info_solids $id ACTIVATION] == "hidden"} {
                GiD_WriteCalculationFile puts -nonewline ",        "
                
            } else {                
                GiD_WriteCalculationFile puts -nonewline ",[dict get $section_info_solids $id AET]"
            }
        }
    }

    ########## Writing *SECTION_SHELL ##############
    
    foreach id [dict keys $section_info_shells] {
        
        GiD_WriteCalculationFile puts -nonewline "\n*SECTION_SHELL\n$\n$---SECID---ELFORM-----SHRF------NIP----PROPT--QR/IRID----ICOMP----SETYP-------\n$"
        GiD_WriteCalculationFile puts -nonewline "\n[format %8d $id],[dict get $section_info_shells $id ELFORM],[dict get $section_info_shells $id SHRF],[dict get $section_info_shells $id NIP],        ,        ,        ,"
        
        if {[dict get $section_info_shells $id ACTIVATION_SETYP] == "hidden"} {
            GiD_WriteCalculationFile puts -nonewline "        "     
        } else {                
            GiD_WriteCalculationFile puts -nonewline "[dict get $section_info_shells $id SETYP]"
        }
        
        GiD_WriteCalculationFile puts -nonewline "\n$\n$------T1-------T2-------T3-------T4-----NLOC----MAREA-----IDOF---EDGSET-------\n$"
        GiD_WriteCalculationFile puts -nonewline "\n[dict get $section_info_shells $id T1234],[dict get $section_info_shells $id T1234],[dict get $section_info_shells $id T1234],[dict get $section_info_shells $id T1234],[dict get $section_info_shells $id NLOC],        ,"
        
        if {[dict get $section_info_shells $id ACTIVATION_IDOF] == "hidden"} {
            GiD_WriteCalculationFile puts -nonewline "         ,        "         
        } else {                
            GiD_WriteCalculationFile puts -nonewline "[dict get $section_info_shells $id IDOF],        "
        }    
    }

    ######### Writing *SECTION_BEAM ##################

    
    foreach id [dict keys $section_info_beams] {

        #ORIENTATION WOULD BE APPOINTED BY y AXIS
        
        GiD_WriteCalculationFile puts -nonewline "\n*SECTION_BEAM\n$\n$---SECID---ELFORM-----SHRF-------QR------CST----SCOOR------NSM------\n$"
        
        set elform [dict get $section_info_beams $id ELFORM]
        GiD_WriteCalculationFile puts -nonewline "\n[format %8d $id],$elform,        ,"
        
        if {$elform=="1" || $elform=="4" || $elform=="5" || $elform=="11"} {
            GiD_WriteCalculationFile puts -nonewline "[dict get $section_info_beams $id QR]," 
        } else {
            GiD_WriteCalculationFile puts -nonewline "        ,"  
        }

        #HERE WE CONSIDER IF IT'S A TRIANGULAR OR RECTANGULAR SECTION

        if {[dict get $section_info_beams $id TYPE]=="Rectangular_Section" || [dict get $section_info_beams $id TYPE]=="Rectangular_Plastic_Section"} {
            GiD_WriteCalculationFile puts -nonewline "[format "%8g" 0.0]," 
            
        } elseif {[dict get $section_info_beams $id TYPE]=="Circular_Section" || [dict get $section_info_beams $id TYPE]=="Circular_Plastic_Section"} {      
            GiD_WriteCalculationFile puts -nonewline "[format "%8g" 1.0],"
        }

        GiD_WriteCalculationFile puts -nonewline "        ,"
        
        if {$elform=="1" || $elform=="4" || $elform=="5"} {
            GiD_WriteCalculationFile puts -nonewline "[dict get $section_info_beams $id NSM]" 
        } else {
            GiD_WriteCalculationFile puts -nonewline "        "  
        }
        
        GiD_WriteCalculationFile puts -nonewline "\n$\n$-----TS1------TS2------TT1------TT2"
        
        if {$elform=="1" || $elform=="11"} {
            GiD_WriteCalculationFile puts -nonewline "----NSLOC----NTLOC-------\n$"
        } elseif { $elform=="9" } {
            GiD_WriteCalculationFile puts -nonewline "----PRINT-------\n$"
        } else {
            GiD_WriteCalculationFile puts -nonewline "---------\n$"
        }
        
        GiD_WriteCalculationFile puts -nonewline "\n[dict get $section_info_beams $id TS],[dict get $section_info_beams $id TS],[dict get $section_info_beams $id TT],[dict get $section_info_beams $id TT]"
        
        if {$elform=="1" || $elform=="11"} {
            GiD_WriteCalculationFile puts -nonewline ",[dict get $section_info_beams $id NSLOC],[dict get $section_info_beams $id NTLOC]"
        } elseif { $elform=="9" } {
            GiD_WriteCalculationFile puts -nonewline ",[dict get $section_info_beams $id PRINT]"
        }        
    }
    
    ##################################### WRITING SEATBELT PARTS (THEY ARE SAVED IN groupsL dict) ################################

    set xp {container[@n="Properties"]/container[@n="Seatbelts"]/condition[@n="Seatbelt"]/group}
    
    ##### Continue writing *PART ########

    set groupsSeatbelts ""
    set seatbelt_section_num -1
    
    foreach gNode [$root selectNodes "$xp"] {
        
        if { [dict exists $groupsSeatbelts [$gNode @n]] } {
            error [= "There are repeated groups in the seatbelt properties"]
        }  
  
        if {$seatbelt_section_num=="-1"} {
            #this section is computed in the total section calculus as a beam section
            incr section_beams_num
            set seatbelt_section_num $section_beams_num
            GiD_WriteCalculationFile puts -nonewline "\n*SECTION_SEATBELT\n$\n$---SECID-----\n$"
            GiD_WriteCalculationFile puts -nonewline "\n[format "%8d" [expr ($section_solids_num + $section_shells_num + $seatbelt_section_num)]]"
        }
     
        dict set part_info [$gNode @n] SID "[format %8d [ expr ($section_solids_num + $section_shells_num + $seatbelt_section_num)]]"
        
        incr part_num
        dict set groupsSeatbelts [$gNode @n] $part_num
        
        dict set part_info [$gNode @n] PID "[format %8d $part_num]"
        GiD_WriteCalculationFile puts -nonewline "\n*PART\n$-----PID---SECID-----MID--------\nPart $part_num Header"
        GiD_WriteCalculationFile puts -nonewline "\n[format %8d $part_num],[format %8d [ expr ($section_solids_num + $section_shells_num + $seatbelt_section_num)]]" 
        
        dict set part_info [$gNode @n] TM 0 
        set type [$gNode selectNodes {string(../@n)}]
        
        #SAVING MATERIAL DATA
        
        set aux [save_materials $root $gNode $mat_info $mat_num 0 0 0]
        
    }
    
    
    
           
    ######### Writing *MATERIALS ###############
       

    if {$mat_num!="0"} {  
        
        set last_type 0
        
        foreach id [dict keys $mat_info] {
            
            set type [dict get $mat_info $id TYPE]
                 
            switch $type {
                1 {
                    #ELASTIC MATERIAL
                    
                    if {$last_type!="1"} {
                        
                        GiD_WriteCalculationFile puts -nonewline "\n*MAT_ELASTIC"
                        GiD_WriteCalculationFile puts -nonewline "\n$\n$----MID-------------RHO---------------E---------PR-----\n$"                  
                    }
                    
                    GiD_WriteCalculationFile puts -nonewline "\n[dict get $mat_info $id MID],[dict get $mat_info $id RHO],[dict get $mat_info $id E],[dict get $mat_info $id PR]"
                }
                2 {
                    #ORTHOTROPIC MATERIAL
                    #Warning: Type 2 is different than Type 2_ANIS (MAT_ANISOTROPIC_ELASTIC for solids)
                    
                    GiD_WriteCalculationFile puts -nonewline "\n*MAT_ORTHOTROPIC_ELASTIC"
                    GiD_WriteCalculationFile puts -nonewline "\n$\n$-----MID-------RO-------EA-------EB-------EC-----PRBA-----PRCA-----PRCB-----\n$"
                    #EB IS REPEATED (BUT NOT USED BY LS-DYNA)
                    GiD_WriteCalculationFile puts -nonewline "\n[dict get $mat_info $id MID],[dict get $mat_info $id RHO],[dict get $mat_info $id EA],[dict get $mat_info $id EB],[dict get $mat_info $id EB]"
                    GiD_WriteCalculationFile puts -nonewline ",        ,[dict get $mat_info $id NUAB],        ,        "
                    GiD_WriteCalculationFile puts -nonewline "\n$\n$-----GAB------GBC------GCA-----AOPT--------G-----SIGF------\n$"
                    GiD_WriteCalculationFile puts -nonewline "\n[dict get $mat_info $id GAB],[dict get $mat_info $id GBC],[dict get $mat_info $id GAC],[format "%8g" 3.0]"
                    #ARBITRARY CHOSEN VECTOR (WARNING: USER MAY CHOOSE ONE VECTOR NORMAL TO SHELL SURFACE) 
                    GiD_WriteCalculationFile puts -nonewline "\n$\n$------V1-------V2-------V3-------\n$"
                    GiD_WriteCalculationFile puts -nonewline "\n\n[format "%8g" 1.0],[format "%8g" 0.0],[format "%8g" 0.0]"
                }
                20 {
                    #RIGID MATERIAL

                    if {$last_type!="20"} {
                        
                        GiD_WriteCalculationFile puts -nonewline "\n*MAT_RIGID"
                        GiD_WriteCalculationFile puts -nonewline "\n$\n$----MID-------------RHO---------------E---------PR-----\n$"                  
                    }
                    
                    GiD_WriteCalculationFile puts -nonewline "\n[dict get $mat_info $id MID],[dict get $mat_info $id RHO],[dict get $mat_info $id E],[dict get $mat_info $id PR]\n\n"
                }
                9 {
                    #NULL MATERIAL
                    if {$last_type!="9"} {                        
                        GiD_WriteCalculationFile puts -nonewline "\n*MAT_NULL"
                        GiD_WriteCalculationFile puts -nonewline "\n$\n$-----MID-------RO-------PC-------MU----TEROD----CEROD-------YM-------PR-----\n$"                  
                    }
                    
                    GiD_WriteCalculationFile puts -nonewline "\n[dict get $mat_info $id MID],[dict get $mat_info $id RHO],        ,        ,        ,        ,[dict get $mat_info $id E],[dict get $mat_info $id PR]"
                    
                }
                6 {
                    #VISCOELASTIC MATERIAL 
                    if {$last_type!="6"} {                        
                        GiD_WriteCalculationFile puts -nonewline "\n*MAT_VISCOELASTIC"
                        GiD_WriteCalculationFile puts -nonewline "\n$\n$-----MID-------RO-----BULK-------G0-------GI-----BETA-----\n$"                  
                    }
                    
                    GiD_WriteCalculationFile puts -nonewline "\n[dict get $mat_info $id MID],[dict get $mat_info $id RO],[dict get $mat_info $id BULK],[dict get $mat_info $id G0],[dict get $mat_info $id GI],[dict get $mat_info $id BETA]"                  
                    
                }
                24 {
                    #PIECEWISE PLASTIC LINEAR MATERIAL                    
                   
                    GiD_WriteCalculationFile puts -nonewline "\n*MAT_PIECEWISE_LINEAR_PLASTICITY"
                    GiD_WriteCalculationFile puts -nonewline "\n$\n$-----MID-------RO-------E--------PR-----SIGY-----ETAN-------\n$"              
               
                    #FAILURE CRITERIA COULD BE IMPLEMENTED HERE, AS WELL AS PLASTIC BEHAVIOUR CURVE
                    GiD_WriteCalculationFile puts -nonewline "\n[dict get $mat_info $id MID],[dict get $mat_info $id RHO],[dict get $mat_info $id E],[dict get $mat_info $id PR],[dict get $mat_info $id SIGY],[dict get $mat_info $id ETAN]\n\n\n"              
                }
                3 {
                    #PLASTIC KINEMATIC MATERIAL   
                    GiD_WriteCalculationFile puts -nonewline "\n*MAT_PLASTIC_KINEMATIC"
                    GiD_WriteCalculationFile puts -nonewline "\n$\n$-----MID-------RO-------E--------PR-----SIGY-----ETAN-----BETA-------\n$"
                    GiD_WriteCalculationFile puts -nonewline "\n[dict get $mat_info $id MID],[dict get $mat_info $id RHO],[dict get $mat_info $id E],[dict get $mat_info $id PR],[dict get $mat_info $id SIGY],[dict get $mat_info $id ETAN],        \n"                      
                }
                29 {    
                    #FORCE LIMITED MATERIAL
                    GiD_WriteCalculationFile puts -nonewline "\n*MAT_FORCE_LIMITED"
                    GiD_WriteCalculationFile puts -nonewline "\n$-----MID-------RO--------E-------PR-------DF-----AOPT---YTFLAG----ASOFT-------" 
                    GiD_WriteCalculationFile puts -nonewline "\n[dict get $mat_info $id MID],[dict get $mat_info $id RHO],[dict get $mat_info $id E],[dict get $mat_info $id PR],[format "%8g" 0],[dict get $mat_info $id AOPT],[format "%8g" 0],[format "%8g" 0]"   
                    GiD_WriteCalculationFile puts -nonewline "\n$------M1-------M2-------M3-------M4-------M5-------M6-------M7-------M8-------"
                    GiD_WriteCalculationFile puts -nonewline "\n[dict get $mat_info $id M],[format "%8g" 0],[format "%8g" 0],[format "%8g" 0],[format "%8g" 0],[format "%8g" 0],[format "%8g" 0],[format "%8g" 0]" 
                    GiD_WriteCalculationFile puts -nonewline "\n$-----LC1------LC2------LC3------LC4------LC5------LC6------LC7------LC8-------"
                    GiD_WriteCalculationFile puts -nonewline "\n[dict get $mat_info $id LCDR],[format "%8d" 0],[format "%8d" 0],[format "%8d" 0],[format "%8d" 0],[format "%8d" 0],[format "%8d" 0],[format "%8d" 0]" 
                    GiD_WriteCalculationFile puts -nonewline "\n$----LPS1-----SFS1-----LPS2-----SFS2-----YMS1-----YMS2-------"
                    GiD_WriteCalculationFile puts -nonewline "\n[format "%8d" 0],[dict get $mat_info $id SF],[format "%8d" 0],[dict get $mat_info $id SF],[dict get $mat_info $id YM],[dict get $mat_info $id YM]" 
                    GiD_WriteCalculationFile puts -nonewline "\n$----LPT1-----SFT1-----LPT2-----SFT2-----YMT1-----YMT2-------"
                    GiD_WriteCalculationFile puts -nonewline "\n[format "%8d" 0],[dict get $mat_info $id SF],[format "%8d" 0],[dict get $mat_info $id SF],[dict get $mat_info $id YM],[dict get $mat_info $id YM]"
                    GiD_WriteCalculationFile puts -nonewline "\n$-----LPR------SFR------YMR-----"
                    GiD_WriteCalculationFile puts -nonewline "\n[format "%8d" 0],[dict get $mat_info $id SFR],[dict get $mat_info $id YMR]" 
                }
                34 {
                    #FABRIC MATERIAL
                    GiD_WriteCalculationFile puts -nonewline "\n*MAT_FABRIC"                    
                    GiD_WriteCalculationFile puts -nonewline "\n$\n$-----MID-------RO-------EA-------EB-------EC-----PRBA-----PRCA-----PRCB-----\n$"
                    #EB IS REPEATED (BUT NOT USED BY LS-DYNA)
                    GiD_WriteCalculationFile puts -nonewline "\n[dict get $mat_info $id MID],[dict get $mat_info $id RHO],[dict get $mat_info $id EA],[dict get $mat_info $id EB],[dict get $mat_info $id EB]"
                    GiD_WriteCalculationFile puts -nonewline ",[dict get $mat_info $id NUAB],        ,        "
                    GiD_WriteCalculationFile puts -nonewline "\n$\n$-----GAB------GBC------GCA-----CSE-------EL------PRL----LRATIO-----DAMP------\n$"
                    GiD_WriteCalculationFile puts -nonewline "\n[dict get $mat_info $id GAB],[dict get $mat_info $id GBC],[dict get $mat_info $id GAC],[dict get $mat_info $id CSE],"
                    
                    #Liner data is optional
                    if {[dict get $mat_info $id EL]==-1} {
                        GiD_WriteCalculationFile puts -nonewline "        ,"
                    } else {
                        GiD_WriteCalculationFile puts -nonewline "[dict get $mat_info $id EL],"
                    }
                    
                    if {[dict get $mat_info $id PRL]==-1} {
                        GiD_WriteCalculationFile puts -nonewline "        ,"
                    } else {
                        GiD_WriteCalculationFile puts -nonewline "[dict get $mat_info $id PRL],"
                    }

                    GiD_WriteCalculationFile puts -nonewline "[dict get $mat_info $id LRATIO],[dict get $mat_info $id DAMP]"

                    GiD_WriteCalculationFile puts -nonewline "\n$\n$-----AOPT-------\n$"
                    GiD_WriteCalculationFile puts -nonewline "\n[format "%8d" 3]"
                    #ARBITRARY CHOSEN VECTOR (WARNING: USER MAY CHOOSE ONE VECTOR NORMAL TO SHELL SURFACE) 
                    GiD_WriteCalculationFile puts -nonewline "\n$\n$------V1-------V2-------V3-------\n$"
                    GiD_WriteCalculationFile puts -nonewline "\n\n[format "%8g" 1.0],[format "%8g" 0.0],[format "%8g" 0.0]"
                }
                801 {
                    #SEATBELT MATERIAL
                    GiD_WriteCalculationFile puts -nonewline "\n*MAT_SEATBELT" 
                    GiD_WriteCalculationFile puts -nonewline "\n$\n$-----MID-----MPUL----LLCID----ULCID-----LMIN---------\n$"
                    GiD_WriteCalculationFile puts -nonewline "\n[dict get $mat_info $id MID],[dict get $mat_info $id MPUL],[dict get $mat_info $id LLCID],[dict get $mat_info $id ULCID],[dict get $mat_info $id LMIN]"
                }
            }
            set last_type $type
        }
    }

    #################################WRITING AIRBAG CARDS###########################################   

    set airbags_info ""
    
    #SAVING AIRBAG CARDS DATA AND WRITING LCDIM CURVES
    foreach i [list 1 2] {
        
        set xp {container[@n="Properties"]/container[@n="Airbags"]/condition[@n="Airbag"]/groupList}
        append xp {/group[$i]}
        set xp [subst -nocommands $xp]      
        
        set airbags_num 0
        
        foreach gNode [$root selectNodes $xp] {               
            
            incr airbags_num 
            
            #WE OBTAIN PART ID (from each shell)
            
            set part_name [$gNode @n]
            set part_id [dict get $part_info $part_name PID]
            dict set airbags_info $airbags_num ${i}_id $part_id  
            
            #WE PRINT AIRBAG CARD (only once)
            if {$i=="1"} {    
                #FIRST OF ALL WE GUESS AIRBAG TYPE
                
                set xp "..//value\[@n='Airbag_type']"       
                set valueNode [$gNode selectNodes $xp]  
                set airbag_type [$valueNode @v]
                
                
                #WE PRINT MASS FLOW RATE CURVE
                set xp "..//value\[@n='Factor'\]"
                set valueNode [$gNode selectNodes $xp]     
                set function [$valueNode selectNodes {.//function}]                   
                
                if { $function eq "" } {
                    #if no equation is entered lcid is set to zero
                    set lcid 0
                } else {
                    
                    incr curve_num  
                    set lcid $curve_num 
                    
                    set curve_info ""
                    
                    foreach fNode [$function selectNodes {functionVariable}] {
                        lappend function_name [$fNode @n] [$fNode @variable]
                        dict set curve_info [$gNode @n] $curve_num
                    }            
                    
                    GiD_WriteCalculationFile puts -nonewline "\n*DEFINE_CURVE\n$\n$----LCID-----SIDR------SFA------SFO-----OFFA-----------\n$"
                    GiD_WriteCalculationFile puts -nonewline "\n[format "%8d" $curve_num],[format "%8d" 0],[format "%8g" 1.0],[format "%8g" 1.0]"
                    GiD_WriteCalculationFile puts -nonewline "\n$\n$-----------------AI----------------------OI------------\n$"
                    
                    set xp {functionVariable[@n="interpolator_func" and @variable="t"]}
                    set fvNode [$function selectNodes $xp]
                    set values [$fvNode selectNodes value]
                    
                    #WE FIND TIME UNITS FACTOR 
                    set abcissa_units  [$fvNode @units]
                    set abcissa_factor [compute_units_factor time $abcissa_units] 
                    
                    foreach v $values {                        
                        set abcissa_value [expr ($abcissa_factor*[lindex [split [$v @v] ,] 0])]
                        set ordinate_value [lindex [split [$v @v] ,] 1]
                        GiD_WriteCalculationFile puts -nonewline "\n[format "%20E" $abcissa_value],[format "%20E" $ordinate_value] "
                    }           
                    
                }                 
                
                #WE PRINT GAS TEMPERATURE CURVE
                set xp "..//value\[@n='Factor_Temp'\]"
                set valueNode [$gNode selectNodes $xp]     
                set function [$valueNode selectNodes {.//function}]                   
                
                if { $function eq "" } {
                    #if no equation is entered lcid is set to zero, except on Wang_Nefske airbags
                    set lcid_temp 0
                    
                    if {$airbag_type=="Wang_Nefske"} {                      
                        set factor_temp [$valueNode @v]
                        if {$factor_temp==""} {
                            set factor_temp 0.0
                        } else {
                            set factor_temp [gid_groups_conds::convert_value_to_default $valueNode]
                        }
                    }                
                } else {                    
                    incr curve_num  
                    set lcid_temp $curve_num 
                    
                    set curve_info ""
                    
                    foreach fNode [$function selectNodes {functionVariable}] {
                        lappend function_name [$fNode @n] [$fNode @variable]
                        dict set curve_info [$gNode @n] $curve_num
                    }            
                    
                    GiD_WriteCalculationFile puts -nonewline "\n*DEFINE_CURVE\n$\n$----LCID-----SIDR------SFA------SFO-----OFFA-----------\n$"
                    GiD_WriteCalculationFile puts -nonewline "\n[format "%8d" $curve_num],[format "%8d" 0],[format "%8g" 1.0],[format "%8g" 1.0]"
                    GiD_WriteCalculationFile puts -nonewline "\n$\n$-----------------AI----------------------OI------------\n$"
                    
                    set xp {functionVariable[@n="interpolator_func" and @variable="t"]}
                    set fvNode [$function selectNodes $xp]
                    set values [$fvNode selectNodes value]
                    
                    #WE FIND TIME UNITS FACTOR 
                    set abcissa_units  [$fvNode @units]
                    set abcissa_factor [compute_units_factor time $abcissa_units] 
                    
                    #WE FIND TEMP UNITS FACTOR
                    
                    set ordinate_units [$valueNode @units]
                    set xp [format_xpath {units/unit_magnitude[@n="Temp"]/unit[@n=%s]} $ordinate_units]
                    set ordinate_factor [$root getAttributeP $xp factor]  
                    
                    foreach v $values {                        
                        set abcissa_value [expr ($abcissa_factor*[lindex [split [$v @v] ,] 0])]
                        set ordinate_value [expr ($ordinate_factor*[lindex [split [$v @v] ,] 1])]
                        GiD_WriteCalculationFile puts -nonewline "\n[format "%20E" $abcissa_value],[format "%20E" $ordinate_value] "
                    }          
                } 
                
                #WE PRINT ORIFICE AREA CURVE (only wang_nefske airbags)
                
                if {$airbag_type=="Wang_Nefske"} {
                    
                    set xp "..//value\[@n='Factor_Exit'\]"
                    set valueNode [$gNode selectNodes $xp]     
                    set function [$valueNode selectNodes {.//function}]                   
                    
                    if { $function eq "" } {
                        #if no equation is entered we read the coefficient
                        set lcid_exit 0                    
                        set factor_exit [$valueNode @v]
                        if {$factor_exit==""} {
                            set factor_exit 0.0
                        } else {
                            set factor_exit [gid_groups_conds::convert_value_to_default $valueNode]
                        }                     
                    } else {                    
                        incr curve_num  
                        set lcid_exit $curve_num 
                        
                        set curve_info ""
                        
                        foreach fNode [$function selectNodes {functionVariable}] {
                            lappend function_name [$fNode @n] [$fNode @variable]
                            dict set curve_info [$gNode @n] $curve_num
                        }            
                        
                        GiD_WriteCalculationFile puts -nonewline "\n*DEFINE_CURVE\n$\n$----LCID-----SIDR------SFA------SFO-----OFFA-----------\n$"
                        GiD_WriteCalculationFile puts -nonewline "\n[format "%8d" $curve_num],[format "%8d" 0],[format "%8g" 1.0],[format "%8g" 1.0]"
                        GiD_WriteCalculationFile puts -nonewline "\n$\n$-----------------AI----------------------OI------------\n$"
                        
                        set xp {functionVariable[@n="interpolator_func" and @variable="P"]}
                        set fvNode [$function selectNodes $xp]
                        set values [$fvNode selectNodes value]
                        
                        
                        #WE FIND ORDINATE FACTOR 
                        set ordinate_units [$valueNode @units]
                        set ordinate_units_square [lindex [split $ordinate_units ^] 0]
                        set xp [format_xpath {units/unit_magnitude[@n="L"]/unit[@n=%s]} $ordinate_units_square]
                        set ordinate_factor_square [$root getAttributeP $xp factor]  
                        set ordinate_factor [expr ($ordinate_factor_square*$ordinate_factor_square)]
                        
                        
                        #WE FIND ABCISSA FACTOR
                        
                        set abcissa_units [$fvNode @units]
                        
                        #force units
                        set abcissa_units_force [lindex [split $abcissa_units /] 0]
                        set xp [format_xpath {units/unit_magnitude[@n="F"]/unit[@n=%s]} $abcissa_units_force]
                        set abcissa_factor_force [$root getAttributeP $xp factor]  
                        
                        #distance units
                        
                        set abcissa_units_distance [lindex [split $abcissa_units /] 1]
                        set abcissa_units_distance_square [lindex [split $abcissa_units_distance ^] 0]
                        set xp [format_xpath {units/unit_magnitude[@n="L"]/unit[@n=%s]} $abcissa_units_distance_square]
[...]
                #                             GiD_WriteCalculationFile puts -nonewline "\n[format "%8d" $curve_num],[format "%8d" 0],[format "%8g" 1.0],[format "%8g" 1.0],[format "%8g" [dict get $function_info ti]]\n$\n$-FUNCTION-------\n$"
                GiD_WriteCalculationFile puts -nonewline "\n[format "%8d" $curve_num],\n$\n$-FUNCTION-------\n$"
                GiD_WriteCalculationFile puts -nonewline "\n$A*SIN([dict get $function_info freq]*TIME+[dict get $function_info phi])"                   
            }  
            
            {^interpolator_func t$} {
                
                GiD_WriteCalculationFile puts -nonewline "\n*DEFINE_CURVE\n$\n$----LCID-----SIDR------SFA------SFO-----OFFA-----------\n$"
                GiD_WriteCalculationFile puts -nonewline "\n[format "%8d" $curve_num],[format "%8d" 0],[format "%8g" 1.0],[format "%8g" 1.0]"
                GiD_WriteCalculationFile puts -nonewline "\n$\n$-----------------AI----------------------OI------------\n$"
                
                set xp {functionVariable[@n="interpolator_func" and @variable="t"]}
                set fvNode [$function selectNodes $xp]
                set values [$fvNode selectNodes value]
                
                #WE FIND TIME UNITS FACTOR
                set time_units  [$fvNode @units]
                set time_factor [compute_units_factor time $time_units]             
                
                foreach v $values {
                    set ordinate_value [lindex [split [$v @v] ,] 1]
                    set abcissa_value [ expr ($time_factor*[lindex [split [$v @v] ,] 0])]
                    GiD_WriteCalculationFile puts -nonewline "\n[format "%20E" $abcissa_value],[format "%20E" $ordinate_value] "
                }             
            }
            default {
                error [= "Function load not implemented" $function_name]
            }
        }
        
        set xp ".//value\[@n='Pressure']"
        set valueNode [$gNode selectNodes $xp]
        if { $valueNode eq "" } { continue }
        
        #TO AVOID UNITS PROBLEMS
        if {[$valueNode @v]=="0"} {
            set pressure 0 } else {
            set pressure [expr {$factor*[gid_groups_conds::convert_value_to_default $valueNode]}]
        }
        
        set groupsPressure ""
        dict set groupsPressure [$gNode @n] $groups_num    
        
        set isquadratic [lindex [GiD_Info Project] 5]
        
        foreach elemtype [list Linear Triangle Quadrilateral] {
            
            switch $elemtype {
                
                Linear {
                    switch $isquadratic {
                        0 { set nnode 2 }
                        default {
                            set nnode 3
                        }
                    }
                }           
                Triangle {
                    switch $isquadratic {
                        0 { set nnode 3 }
                        default { set nnode 6 }
                    }
                }
                Quadrilateral {
                    switch $isquadratic {
                        0 { set nnode 4 }
                        1 { set nnode 8 }
                        2 { error [= "9 noded elements not supported in Pressure Load condition"]  }
                    }
                }
            }
            
            #IT SHOULD BE VARIABLE
            set formats ""
            set formatsLA ""
            
            dict for "n v" $groupsPressure {
                
                set card_needed 1
                
                if {$nnode=="6" || $nnode=="8" } {
                    set fc1 "\n*LOAD_SEGMENT\n$\n$----LCID-------SF-------AT-------N1,N2,N3...------\n$\n[format "%8d" 1],[format "%8g" $pressure],[format "%8g" $time],"
                    set card_needed 0    
                } else {
                    set fc1 "\n[format "%8d" $lcid],[format "%8g" $pressure],[format "%8g" $time],"
                }
                
                if {$nnode=="2"} {
                    set fc2 {%1$.0s%2$8d,%3$8d,%3$8d,%3$8d}
                }
                if {$nnode=="3"} {   
                    if {$isquadratic} {
                        set fc2 {%1$.0s%2$8d,%3$8d,%3$8d,%3$8d,%4$8d}
                    } else { 
                        #I'M NO SURE IF IT FOLLOWS THE MANUAL
                        set fc2 {%1$.0s%2$8d,%3$8d,%4$8d,%4$8d}
                    }
                } 
                if {$nnode=="4"} {
                    set fc2 {%.0s%8d,%8d,%8d,%8d}
                }
                if {$nnode=="6"} {
                    set fc2 {%1$.0s%2$8d,%3$8d,%4$8d,%4$8d\n$\n$------N6,N7---------\n$\n %5$8d,%6$8d,%7$8d}
                    
                }
                if {$nnode=="8"} {
                    set fc2 {%.0s%8d,%8d,%8d,%8d,%8d\n$\n$------N6,N7,N8---------\n$\n%8d,%8d,%8d}
                }
                
                append fc1 $fc2 
                set fc1 [subst -novariables $fc1] 
                dict set formats $n "$fc1"
                
                #IT COULD BE VARIABLE
                dict set formatsLA $n "$fc1"
                
            }
            
            if {[GiD_WriteCalculationFile has_elements -elemtype $elemtype $formats]=="1" && $card_needed=="1"} {
                GiD_WriteCalculationFile puts -nonewline "\n*LOAD_SEGMENT"
                GiD_WriteCalculationFile puts -nonewline "\n$\n$----LCID-------SF-------AT-------N1,N2,N3...------\n$"
            }
            
            set Contact_elements [GiD_WriteCalculationFile connectivities -localaxes $formatsLA \
                    -elemtype "$elemtype" $formats]
        }
        incr groups_num
    }         
    
    
#############################################################
#     Writing custom loads
    set customdataList ""
    set formats ""
    set xp {container[@n='loadcases']/condition[@n='custom_load']/group}
    foreach gNode [$root selectNodes $xp] {
        set xp {string(ancestor::blockdata[@n='loadcase']/@name)}
        set loadcase [$gNode selectNodes $xp]
        regsub -all {\s+} $loadcase {_} name
        set f "%d"
        set tcl_code [$gNode selectNodes {string(value[@n='tcl_code']/@v)}]
        set tcl_code_enc [string map [list %0D ""] [::ncgi::encode $tcl_code]]
        set units [$gNode selectNodes {string(value[@n='units']/@v)}]
        
        set num [expr {[llength $customdataList]+1}]
        set c "$num units=$units tcl=$tcl_code_enc name=custom_data$num"
        lappend customdataList $c
        append f " $num name=$name\n"
        if { [$gNode @ov] eq "point" } {
            set l custom_data_nodes
        } else {
            set l custom_data_elems
        }
        dict set formats $l $loadcase [$gNode @n] $f
    }

###########################################################
#     Writing wave loads 
    set formats ""
    set has_NavalWaveLoad 0
    set xp {container[@n='loadcases']/blockdata[@n='loadcase']/container[@n='Shells']/condition[@n='WaveLoad_shell']/group}
    foreach gNode [$root selectNodes $xp] {
        set xp {string(ancestor::blockdata[@n='loadcase']/@name)}
        set loadcase [$gNode selectNodes $xp]
        regsub -all {\s+} $loadcase {_} name
        set f "%d"
        set units [$gNode selectNodes {string(value[@n='WaveUnits']/@v)}]
        set tcl_code [$gNode selectNodes {string(value[@n='WaveTclCode']/@v)}]
        set tcl_code_enc [string map [list %0D ""] [::ncgi::encode $tcl_code]]
                
        set num [expr {[llength $customdataList]+1}]
        set c "$num units=$units tcl=$tcl_code_enc name=custom_data$num"
        lappend customdataList $c
        append f " $num name=$name\n"

        set l custom_data_elems
        
        dict set formats $l $loadcase [$gNode @n] $f
        incr has_NavalWaveLoad

    }
    if { $has_NavalWaveLoad } { GiD_WriteCalculationFile puts "NavalWaveLoad" }

###########################################################
#     Writing Morison loads 
    set formats ""
    set has_MorisonLoad 0
    set xp {container[@n='loadcases']/blockdata[@n='loadcase']/container[@n='Shells']/condition[@n='morison_load_shell']/group}
    foreach gNode [$root selectNodes $xp] {
        set xp {string(ancestor::blockdata[@n='loadcase']/@name)}
        set loadcase [$gNode selectNodes $xp]
        regsub -all {\s+} $loadcase {_} name
        set f "%d"
        set units [$gNode selectNodes {string(value[@n='MorUnits']/@v)}]
        set tcl_code [$gNode selectNodes {string(value[@n='MorisonTclCodeS']/@v)}]
        set tcl_code_enc [string map [list %0D ""] [::ncgi::encode $tcl_code]]
                
        set num [expr {[llength $customdataList]+1}]
        set c "$num units=$units tcl=$tcl_code_enc name=custom_data$num"
        lappend customdataList $c
        append f " $num name=$name\n"

        set l custom_data_elems
        
        dict set formats $l $loadcase [$gNode @n] $f
        incr has_MorisonLoad

    }
#     if { $has_MorisonLoad } { GiD_WriteCalculationFile puts "MorisonSurfLoad" }
############################################################

    if { [llength $customdataList] } {
        GiD_WriteCalculationFile puts "custom_data"
        GiD_WriteCalculationFile puts [join $customdataList \n]
        GiD_WriteCalculationFile puts "end custom_data"
    }


    foreach i [dict keys $formats] {
        GiD_WriteCalculationFile puts "static_load"
        GiD_WriteCalculationFile puts $i
        
        foreach loadcase [dict keys [dict get $formats $i]] {
            set NRDict ""
            foreach key [dict keys [dict get $formats $i $loadcase]] {
                foreach format [dict values [dict get $formats $i $loadcase]] {
                    dict set NRDict $format "%d:$format"
                }
            }
            if { $i eq "custom_data_nodes" } {
                GiD_WriteCalculationFile nodes -number_ranges $NRDict \
                    [dict get $formats $i $loadcase]
            } else {
                #                 GiD_WriteCalculationFile elements -elements_faces elements \
                    #                     -number_ranges $NRDict [dict get $formats $i $loadcase]
                # De momento sin la opcin de rangos
                GiD_WriteCalculationFile elements -elements_faces elements [dict get $formats $i $loadcase]
                
                set formats_face ""
                dict for "n v" [dict get $formats $i $loadcase] {
                    dict set formats_face $i $loadcase $n "%d $v"
                }
                set NRDict ""
                foreach format [dict values [dict get $formats $i $loadcase]] {
                    dict set NRDict $format "%d:$format"
                }
                GiD_WriteCalculationFile elements -elements_faces faces \
                    -number_ranges $NRDict $formats_face
                
            }
        }
        
    }       
}

###############################################################
# OUTPUT FORMAT
##############################################################

proc b_write_calc_file::write_output_data  { root } {
    
    set printed_card 0
    global set_num
    
    set xp {blockdata[@n="Database"]/value[@n="DT"]}
    set valueNode [$root selectNodes $xp]
    set avs_time [gid_groups_conds::convert_value_to_default $valueNode]  

    if {$avs_time <= "0"}  {
        error [= "Invalid interval between GiD outputs"]
    }

    #WE SPECIFY AVSFLT FILE CARDS++++++++++++++++++++++++++++++++++++++++++++++++++++
    

    #WRITING GiD POST-PROCESS ACTIVATIONS (DATA EXTENT CARD)

    # SOME CASES OF SHELL STRAINS ARE IMPLEMENTED IN EASYDYNA.EXE BUT NOT HERE (BECAUSE SOMETIMES THEY ARE NOT PRESENT IN AVSFLT FILE)
    # CASE 49: Max. Principal Strain Midsurface
    # CASE 51: Min. Principal Strain Midsurface
    # CASE 52: Effective Strain lower Surface
    # CASE 53: Max. Principal Strain lower Surface
    # CASE 54: Trough thickness min. strain
    # CASE 55: Max. Principal Strain lower Surface
    # CASE 57: Effective Strain lower Surface
    # CASE 59: Max. Principal Strain upper Surface
    # CASE 60: Max. Principal Strain upper Surface

    foreach i [list Displacements Velocities Accelerations Stresses Strains Quadratic Brick_Stresses Brick_Plastic_Strain] j [list 0 0 0 3 3 3 1 1] \
        k [list 1 2 3 [list 1 2 3 4 5 6 46 8 9 10 11 12 13 47 15 16 17 18 19 20 48] [list 7 33 34 35 36 37 38 14 39 40 41 42 43 44 21] [list 22 23 24 25 26 27 28 29 30] [list 1 2 3 4 5 6] 7]  {
        switch $j {
            0 {
                set xp {blockdata[@n="Database"]/container[@n="Nodal"]/value[@n="Activate_${i}"]}
            }
            1 {
                set xp {blockdata[@n="Database"]/container[@n="Nodal"]/container[@n="Brick_Elements"]/value[@n="Activate_${i}"]}
            }
            3 {
                set xp {blockdata[@n="Database"]/container[@n="Nodal"]/container[@n="Brick_Elements"]/container[@n="Shell"]/value[@n="Activate_${i}"]}
            }
        }
        
        set xp [subst -nocommands $xp]
        set valueNode [$root selectNodes $xp]
        set activation [$valueNode @v]
        
        if {$activation=="yes"} {
            if {$printed_card=="0"} {
                GiD_WriteCalculationFile puts -nonewline "\n*DATABASE_EXTENT_AVS"
                GiD_WriteCalculationFile puts -nonewline "\n$\n$---VTYPE-----COMP-----\n$"
                set printed_card 1
            } 
            foreach v $k {
                GiD_WriteCalculationFile puts -nonewline "\n[format %8d $j],[format %8d $v]"
            }
        }
    }
    
    #IF ANY DATABASE_EXTENT IS ACTIVATED, WE PRINT DATABASE_AVSFLT CARD+++++++++++++++++
    
    if {$printed_card=="1"} {
        GiD_WriteCalculationFile puts -nonewline "\n*DATABASE_AVSFLT"
        GiD_WriteCalculationFile puts -nonewline "\n$\n$------DT-----\n$"       
        GiD_WriteCalculationFile puts -nonewline "\n[format "%8g" $avs_time],[format "%8d" 1]"  
    }    

    #WRITING LS-DYNA BINARY POSTPROCESS FILE PARAMETERS +++++++++++++++++++++++++++++++++++++
    # Now it is set automatically, consulting values from GiD postprocess data
    
    GiD_WriteCalculationFile puts -nonewline "\n*DATABASE_BINARY_D3PLOT"
    GiD_WriteCalculationFile puts -nonewline "\n$\n$-DT/CYC--LCDT/NR---BEAM-----------NPLTC----PSETID-------\n$"
    GiD_WriteCalculationFile puts -nonewline "\n[format "%8g" $avs_time]"

    #WE SPECIFY ELOUT FILE CARDS++++++++++++++++++++++++++++++++++++++++++++++++++++
    #IF ANY DATABASE_HISTORY CARD IS ACTIVATED, WE PRINT THIS CARD+++++++++++++++++++++++++

    foreach i [list Solid_Stress Yield_Function] {
        
        set xp {blockdata[@n="Database"]/container[@n="Elements"]/container[@n="Solids"]/value[@n="Activate_${i}"]}
        set xp [subst -nocommands $xp]
        set valueNode [$root selectNodes $xp]
        set $i [$valueNode @v]
    }
    
    foreach i [list Beam_Resultant Beam_Integration] {
        
        set xp {blockdata[@n="Database"]/container[@n="Elements"]/container[@n="Beams"]/value[@n="Activate_${i}"]}
        set xp [subst -nocommands $xp]
        set valueNode [$root selectNodes $xp]
        set $i [$valueNode @v]
    }
    
    if {$Solid_Stress=="yes" || $Yield_Function=="yes" || $Beam_Resultant=="yes" || $Beam_Integration=="yes"} {
        
        GiD_WriteCalculationFile puts -nonewline "\n*DATABASE_ELOUT"
        GiD_WriteCalculationFile puts -nonewline "\n$\n$------DT-----\n$"       
        GiD_WriteCalculationFile puts -nonewline "\n[format "%8g" $avs_time],[format "%8d" 1]"
    }
      

    #Then we write all solid elements as a list (if needed)
    
    if {$Solid_Stress=="yes" || $Yield_Function=="yes"} {
        incr set_num
       
        GiD_WriteCalculationFile puts -nonewline "\n*SET_SOLID_GENERAL"   
        GiD_WriteCalculationFile puts -nonewline "\n[format "%8d" $set_num]\n     ALL"
     
        GiD_WriteCalculationFile puts -nonewline "\n*DATABASE_HISTORY_SOLID_SET"
        
        #We will read this lines from easydyna
        if {$Solid_Stress=="yes"} {GiD_WriteCalculationFile puts -nonewline "\n$--Solid Stress"}
        if {$Yield_Function=="yes"} {GiD_WriteCalculationFile puts -nonewline "\n$--Yield Function"}

        GiD_WriteCalculationFile puts -nonewline "\n[format "%8d" $set_num]" 
        

    }
    
    #First we write all beam elements as a list (if needed)
    
    if {$Beam_Resultant=="yes" || $Beam_Integration=="yes"} {
        incr set_num
       
        GiD_WriteCalculationFile puts -nonewline "\n*SET_BEAM_GENERAL"   
        GiD_WriteCalculationFile puts -nonewline "\n[format "%8d" $set_num]\n     ALL"
     
        GiD_WriteCalculationFile puts -nonewline "\n*DATABASE_HISTORY_BEAM_SET"
        
        #We will read this lines from easydyna
        if {$Beam_Resultant=="yes"} {GiD_WriteCalculationFile puts -nonewline "\n$--Beam Resultant"}
        if {$Beam_Integration=="yes"} {GiD_WriteCalculationFile puts -nonewline "\n$--Beam Integration"}

        GiD_WriteCalculationFile puts -nonewline "\n[format "%8d" $set_num]" 
        
    }
   

        
#     set xp {blockdata[@n="Database"]/container[@n="General"]/container[@n="Nodal"]/container[@n="Brick_Elements"]/container[@n="Shell"]/container[@n="d3plot"]/value[@n="Output_Steps_Time"]}
#     set valueNode [$root selectNodes $xp]
#     set step_time [gid_groups_conds::convert_value_to_default $valueNode]
#     
#     if {$step_time == ""} {
#         GiD_WriteCalculationFile puts -nonewline "\n        ,"
#     } elseif {$step_time > "0"} {
#         GiD_WriteCalculationFile puts -nonewline "\n[format "%8g" $step_time],"
#     } else {      
#         error [= "Invalid Step time"] 
#     }
#     
#     #OPTIONAL LCDT NOT ALREADY IMPLEMENTED
#     GiD_WriteCalculationFile puts -nonewline "        ,"
#     #OPTIONAL BEAM NOT ALREADY IMPLEMENTED
#     GiD_WriteCalculationFile puts -nonewline "        ,"
#     
#     set step_number [get_value Output_Steps_Number]
#     
#     if {$step_number == ""} {
#         GiD_WriteCalculationFile puts -nonewline "        ,"
#     } elseif {$step_number > "0"} {
#         GiD_WriteCalculationFile puts -nonewline "[format "%8d" $step_number],"
#     } else {      
#         error [= "Invalid Step Number"]
#     }
    
    GiD_WriteCalculationFile puts -nonewline "\n*END" 
}

proc b_write_calc_file::compute_units_factor  { magnitude units } {
    #THIS FUNCTION HAVE BEEN CREATED IN ORDER TO SOLVE PROBLEMS 
    #FINDING TIME FACTORS (BECAUSE NOW s,min AND hours are in both
    #imperial and international system
    
    switch $magnitude {
        time {
            switch $units {
                s {
                    return 1
                }
                min {
                    return 60
                }
                hour {
                    return 360
                }
            }
        }  
        rotation {
            switch $units {
                deg {
                    return 0.017453292519943
                }
                rad {
                    return 1
                }
            }
        }
        velocity {                            

            set units_0 [lindex [split $units /] 0]  

            switch $units_0 {
                deg {
                    set factor_0 0.017453292519943
                }
                rad {
                    set factor_0 1
                }
            }
                    
            set units_1 [lindex [split $units /] 1]

            switch $units_1 {
                s {
                    set factor_1 1
                }
                min {
                    set factor_1 60
                }
                hour {
                    set factor_1 360
                }
            }           
            
            return [expr ($factor_0*$factor_1)]          
        }
    }    
    error [= "Invalid time units in curve definition"]
}
